49
 energy: -67.439817355875 gnorm: 0.000286327441 xtb: 6.5.1 (b24c23e)
O           -3.29838505737738       -1.20435945024209       -1.56502306041824
O            0.89059653192419        1.81418577916188       -1.14203680168283
O            1.56250886807129        2.93110277797304        1.15550026951416
N           -3.34889007662420       -0.92888259664541        0.67367255275368
C           -0.31372083526712       -2.43765987496661       -0.29180149341141
C           -1.38187725474881       -3.20465205902820        0.48449174870850
C            1.08137484193153       -2.63303300770196        0.30481748381527
C           -2.75648378158943       -3.10233597186151       -0.18541355170401
C            4.05261610624470       -0.30311017104348       -0.69239302321454
C            2.11928857013570       -1.87374811111058       -0.46085934375320
C           -3.15050569374691       -1.65772202172435       -0.44929434547411
C            2.97864605940231       -1.02067714321145        0.06937534582048
C           -3.51932792640648        0.51289404318253        0.63674613890397
C           -2.19157110281749        1.20719150874690        0.80227818025509
C            5.39389750591424       -1.00857208646005       -0.46358712563107
C            4.13864031529203        1.15736599394753       -0.25432420851854
C           -1.30001375103590        1.20631967403620       -0.26909362939507
C           -1.81425018573018        1.77865906576368        2.00212664030002
C           -0.04170591409331        1.77128599409553       -0.15499647570377
C           -0.56136327139848        2.36184899656286        2.12703710561027
C            0.32754383400283        2.36579297347389        1.06887376145406
C            0.59634006076244        1.18308184355017       -2.36439338194519
H           -0.31569058181804       -2.77256418147419       -1.33146750796627
H           -0.55522755492569       -1.37238261706938       -0.28311217321591
H           -1.42761581796597       -2.81878735552440        1.50663420926849
H           -1.10047511758318       -4.25875975898556        0.54790344649155
H            1.08437753280450       -2.31135754574967        1.34866488494688
H            1.32859288038623       -3.69990063506593        0.28086775331687
H           -3.51522324807821       -3.57455108910369        0.44249477963717
H           -2.73523903097458       -3.61482318109071       -1.14800552367069
H            3.81766629166428       -0.34452838947545       -1.76132213918208
H            2.14153553927323       -2.07130187643884       -1.52587447893406
H            2.96023788432119       -0.82910821506237        1.13490757957515
H           -4.21552354555545        0.80598751088405        1.42623561891516
H           -3.95200791060422        0.74641558766808       -0.33896012383321
H           -3.09105082874358       -1.32939262624295        1.56159318577715
H            6.18602565023180       -0.50303148528498       -1.01171613615837
H            5.34369453968437       -2.04250197959573       -0.79841807640855
H            5.64870717065205       -1.00204780508896        0.59429203814652
H            4.42112063929822        1.21907084235298        0.79500745004913
H            4.88695228572718        1.68588723460823       -0.84119842577438
H            3.18074221562441        1.65392669654666       -0.38167778373856
H           -1.61911975601030        0.75579642220921       -1.19533007356546
H           -2.49234746601958        1.78480441136620        2.84250555295795
H           -0.26959038085740        2.81983138724530        3.06305100795015
H            1.68633715995865        3.30270981766610        2.03701413783479
H            1.48174422402741        1.31965018878585       -2.98291797436079
H           -0.26599071651248        1.64229613729274       -2.85800607470776
H            0.41011009915731        0.11378634811735       -2.22676793964522
