26
 energy: -46.450461879880 gnorm: 0.000835193911 xtb: 6.6.1 (8d0f1dd)
O            0.31768623189849       -0.87599907949085        0.44962912046172
O            0.85393289974950        0.32423880718095       -1.36393236095255
C           -0.67274242958536        0.09206117623358        0.81787366711454
C           -1.93529879518937       -0.08327554343801       -0.04093147645490
C            1.01113367863961       -0.63914617401608       -0.66061542441731
C            2.04631600359698       -1.72042424332060       -0.91773693237267
H           -0.90384765375042       -0.08452350580892        1.87129064467894
H           -0.26521613009988        1.10227424931755        0.69201358381888
O           -2.93220132728573        0.81026627019293        0.39059326946007
H           -1.68908995058316        0.06875611348860       -1.10178284344406
H           -2.32653663077843       -1.09825474369032        0.09009766618531
H            1.99013496257768       -1.98683009850607       -1.97597173090129
H            1.82521188654216       -2.59797048920785       -0.30899374992953
C            4.19540192602860       -1.74214525557081        0.40090696863830
H           -2.72194537491073        1.71108689575464        0.11334975055903
C            3.41781605160543       -1.17092126013597       -0.60210855218271
C            5.45191524951982       -1.23531826175106        0.68796268132545
H            3.81979502902183       -2.59267559025358        0.95922644220683
C            3.90549721678182       -0.07263911220604       -1.30887215438633
H            6.05619989041726       -1.68680098033508        1.46598951667515
H            5.53399072346394        1.29629359007985       -1.57520342199618
C            5.94325463770050       -0.13877511564619       -0.02468496849956
C            5.15732351986988        0.44201973198833       -1.02500984147441
C            7.23477457880973        0.38555427450727        0.26678397093751
H            3.29456649242467        0.38349617727731       -2.07942018409827
N            8.27838931353494        0.80982616735606        0.50042235904788
