25
 energy: -41.717530361242 gnorm: 0.000886294847 xtb: 6.5.1 (b24c23e)
O            0.40098282350657       -0.85209840948946        0.40695844615586
O            0.82459340186922        0.24093159916392       -1.50240374584698
C           -0.56485213311055        0.13927389139366        0.77433472222223
C           -1.87769897714344       -0.07913936442296        0.00598532482778
C            1.03386348008121       -0.67737578162868       -0.75286316499766
C            2.08010993383328       -1.74917038985935       -0.98874810733596
H           -0.73200699348392        0.02893336367158        1.84890827554874
H           -0.16553679532426        1.13872691412364        0.56262012242855
O           -2.83993697633248        0.85526272847530        0.43307840408265
H           -1.69469257270507       -0.00231473779473       -1.07594238657149
H           -2.27068848003492       -1.07738597272686        0.22894744651999
H            2.07916193929708       -1.99498246657159       -2.05291576274740
H            1.84012200749475       -2.63846321617687       -0.40486104581059
C            4.13815995599898       -1.73395788969153        0.47239711739991
H           -2.62512212462863        1.73537384577703        0.09795587855986
C            3.42638582042495       -1.18473238330745       -0.58828102647638
C            5.36748760102838       -1.20122813764118        0.83635474440017
H            3.73526087885590       -2.58315916277863        1.01394970365536
C            3.94655841057460       -0.08926232518899       -1.27246171314242
H            5.91906348019312       -1.63768965110103        1.66175043594684
H            5.57305664842640        1.29566452347672       -1.44067573317967
C            5.88702699587636       -0.11384697403526        0.14881056527671
C            5.17319695846744        0.44223922635644       -0.90455070630473
H            6.84641576590534        0.30216068740532        0.43515676744543
H            3.38439895092898        0.34989908257222       -2.08915956205516
