41
 energy: -72.451219344675 gnorm: 0.000165473548 xtb: 6.5.1 (b24c23e)
S           -0.26769109675731        0.37823205095438        1.04940357359350
O           -2.14098134254577       -1.17092279480246       -2.43528821949432
O           -4.60149898647336        1.37045638320897        1.34366296962012
O           -3.46352330763999       -0.28737895636461        2.30665528550577
O            1.80372224860678       -3.39313937777863       -0.48241907816127
N           -2.27347178065231       -0.86420974875850       -0.10354584000513
N            0.72748536694796       -1.50000657717668       -1.11356382427207
C           -1.06522865352679       -1.19556724507117        0.64817236677715
C           -1.56375085206416        1.40462988123033        0.25957952387690
C           -2.79614908736839        0.46929061338808        0.10610337639821
C           -0.54618933960713       -1.93917372258357       -0.61317964027021
C           -1.75389777414122       -1.30947610929234       -1.31392396622033
C           -1.84647783892702        2.60379798298318        1.16232926903726
C           -1.08924668149452        1.88234258787454       -1.11339249288535
C           -3.63731187958037        0.44610938721373        1.37622341276725
C            1.84141774568070       -2.24831437005585       -0.86331168107834
C            3.14145913871334       -1.50240941729050       -1.16166776762761
C            3.10947435611891       -0.12201687496517       -0.56019631444269
C            2.81205040234320        0.99084344643841       -1.34460211966428
C            3.30547945591129        0.04492388129811        0.80963354080852
C            2.71120449186655        2.24991415304180       -0.76686106042586
C            3.20457165750648        1.30281631789406        1.38408390218747
C            2.90241706462213        2.40733331557376        0.59858448585876
H           -1.24976589447048       -1.78636460395464        1.54608223694060
H           -3.41597029488870        0.75511592092658       -0.74882611258826
H           -0.54578272918487       -3.03035505004045       -0.53814716777595
H           -2.06902184710985        2.27593471586984        2.17662300501464
H           -0.97193660927421        3.25303447679203        1.19361428258820
H           -2.69354941436692        3.17469617174109        0.78026052307615
H           -0.15288858116979        2.42938247536647       -1.00707340519177
H           -0.91977273473716        1.03668518342106       -1.77720766687506
H           -1.83256137462088        2.54015499515064       -1.56599183665443
H            0.84270997768203       -0.49547707409954       -1.17768931994662
H           -5.11674019963957        1.32854066623251        2.16657625312276
H            3.96211908522026       -2.09632706472037       -0.75548319942807
H            3.25454470799193       -1.44860618406821       -2.24739485496626
H            2.66555342324126        0.87501859544354       -2.41329011935982
H            3.53273339812084       -0.81625011504117        1.42827017076956
H            2.48406413949726        3.10975128980759       -1.38735260967251
H            3.35579875560385        1.42082745334628        2.45119557061439
H            2.81770288455500        3.38926334086626        1.04995454842365
