3
 energy: -10.906101643760 gnorm: 0.000412442967 xtb: 6.5.0 (97a52f5)
N           -0.09801915447609        0.08645847646867       -0.11305833107695
O           -0.46845748663901       -0.97958670452390       -0.45943726652322
O            0.29804864111510        1.08036322805522       -0.61199840239983
